LTspice 24.0.12 for Windows
Circuit: * C:\Users\D\Documents\School\utsm\power-safety_24-25\pcb\h_sensor_safety\sim\Draft1.asc
Start Time: Mon Jan 20 09:17:44 2025
solver = Normal
Maximum thread count: 8



Direct Newton iteration failed to find .op point.  (Use ".option noopiter" to skip.)
Starting Gmin stepping
Gmin = 10
Gmin = 1.07374
Gmin = 0.115292
Gmin = 0.0123794
Gmin = 0.00132923
Gmin = 0.000142725
Gmin = 1.5325e-05
Gmin = 1.6455e-06
Gmin = 1.76685e-07
Gmin = 1.89714e-08
Gmin = 2.03704e-09
Gmin = 2.18725e-10
Gmin = 2.34854e-11
Gmin = 2.52173e-12
Gmin = 2.70769e-13
Gmin = 0
Gmin stepping succeeded in finding the operating point.

.step rload=0.1



.step rload=1



.step rload=10



.step rload=100
tnom = 27
temp = 27
method = modified trap
.step rload=1000
Total elapsed time: 0.353 seconds.

