LTspice 24.0.12 for Windows
Circuit: * C:\Users\D\Documents\School\utsm\power-safety_24-25\pcb\h_sensor_safety\sim\restart.asc
Start Time: Thu Jan  9 18:39:21 2025
solver = Normal
Maximum thread count: 8
tnom = 27
temp = 27
method = modified trap
.OP point found by inspection.
Total elapsed time: 0.288 seconds.

